Circuit: * C:\Teo\#Maties\2021\2nd Semester\eDesign\GitRepo\LTspice\A2\E344_A22897828_A2.asc

Direct Newton iteration failed to find .op point.  (Use ".option noopiter" to skip.)
Starting Gmin stepping
Gmin = 10
Gmin = 1.07374
Gmin = 0.115292
Gmin = 0.0123794
Gmin = 0.00132923
Gmin = 0.000142725
Gmin = 1.5325e-005
Gmin = 1.6455e-006
Gmin = 1.76685e-007
Gmin = 1.89714e-008
Gmin = 2.03704e-009
Gmin = 2.18725e-010
Gmin = 2.34854e-011
Gmin = 2.52173e-012
Gmin = 2.70769e-013
Gmin = 0
Gmin stepping succeeded in finding the operating point.


Date: Mon Aug 23 07:36:22 2021
Total elapsed time: 0.735 seconds.

tnom = 27
temp = 27
method = modified trap
totiter = 5852
traniter = 5392
tranpoints = 2412
accept = 2313
rejected = 99
matrix size = 57
fillins = 36
solver = Normal
Matrix Compiler1: 6.88 KB object code size  3.2/1.9/[0.9]
Matrix Compiler2: 5.57 KB object code size  1.1/1.4/[0.7]

