Circuit: * C:\Teo\#Maties\2021\2nd Semester\eDesign\Assignments\A3\Spice - old\E344_22897828_A3.asc

Direct Newton iteration for .op point succeeded.

Date: Sun Aug 29 19:40:05 2021
Total elapsed time: 1.351 seconds.

tnom = 27
temp = 27
method = modified trap
totiter = 7684
traniter = 7669
tranpoints = 2887
accept = 2356
rejected = 531
matrix size = 59
fillins = 61
solver = Normal
Thread vector: 54.9/44.4[4] 20.0/12.1[4] 11.5/9.0[4] 0.9/4.4[1]  2592/500
Matrix Compiler1: 7.66 KB object code size  9.3/6.0/[1.9]
Matrix Compiler2: 5.93 KB object code size  3.7/5.6/[1.0]

