Circuit: * C:\Teo\#Maties\2021\2nd Semester\eDesign\Assignments\A6\Spice\Assessment_6_LTspice_Template\E344_22897828_A6.asc

WARNING: Less than two connections to node INPUT.  This node is used by V1.
Direct Newton iteration failed to find .op point.  (Use ".option noopiter" to skip.)
Starting Gmin stepping
Gmin = 10
Gmin = 1.07374
Gmin = 0.115292
Gmin = 0.0123794
Gmin = 0.00132923
Gmin = 0.000142725
Gmin = 1.5325e-005
Gmin = 1.6455e-006
vernier = 0.5
Gmin = 4.67527e-007
vernier = 0.666667
vernier = 0.888888
Gmin = 8.30855e-008
vernier = 1
Gmin = 9.33136e-009
Gmin = 1.00195e-009
Gmin = 1.07583e-010
Gmin = 1.15517e-011
Gmin = 1.24035e-012
Gmin = 1.33182e-013
Gmin = 0
Gmin stepping succeeded in finding the operating point.


Date: Sun Oct 03 16:30:09 2021
Total elapsed time: 3.000 seconds.

tnom = 27
temp = 27
method = modified trap
totiter = 165819
traniter = 165182
tranpoints = 82588
accept = 77942
rejected = 4646
matrix size = 46
fillins = 36
solver = Normal
Thread vector: 10.4/6.9[4] 7.0/3.2[4] 2.1/1.6[4] 0.1/1.6[1]  2592/500
Matrix Compiler1: 4.52 KB object code size  2.1/1.3/[0.6]
Matrix Compiler2: 4.13 KB object code size  0.8/0.8/[0.3]

