Circuit: * C:\Users\teojo\Desktop\Assessment_7_LTspice_Template\E344_22897828_A7.asc

Limiting rise time of source v4 to 0.05
Limiting fall time of source v4 to 0.05
Limiting rise time of source v2 to 0.05
Limiting fall time of source v2 to 0.05
Direct Newton iteration for .op point succeeded.

Date: Mon Oct 11 07:00:38 2021
Total elapsed time: 1.395 seconds.

tnom = 27
temp = 27
method = modified trap
totiter = 11123
traniter = 11080
tranpoints = 5352
accept = 5255
rejected = 97
matrix size = 55
fillins = 34
solver = Normal
Thread vector: 43.5/29.0[4] 20.0/11.9[4] 10.4/5.3[4] 0.7/5.5[1]  2592/500
Matrix Compiler1: 4.17 KB object code size  4.7/4.1/[0.9]
Matrix Compiler2: 5.16 KB object code size  2.9/2.4/[0.9]

